Version 4
SHEET 1 1924 1520
WIRE 176 -16 32 -16
WIRE 320 -16 272 -16
WIRE 336 -16 320 -16
WIRE 496 -16 336 -16
WIRE 544 -16 496 -16
WIRE 640 -16 576 -16
WIRE 816 -16 720 -16
WIRE 896 -16 816 -16
WIRE 944 -16 896 -16
WIRE 32 64 32 -16
WIRE 256 64 256 32
WIRE 496 80 496 -16
WIRE 560 80 560 0
WIRE 624 80 560 80
WIRE 688 80 624 80
WIRE 816 80 816 -16
WIRE 944 80 944 -16
WIRE 256 96 256 64
WIRE 336 128 336 -16
WIRE 336 128 272 128
WIRE 256 224 256 160
WIRE 320 224 256 224
WIRE 352 224 320 224
WIRE 32 272 32 144
WIRE 496 272 496 144
WIRE 496 272 32 272
WIRE 816 272 816 144
WIRE 816 272 496 272
WIRE 944 272 944 160
WIRE 944 272 816 272
WIRE 32 336 32 272
WIRE 96 448 32 448
WIRE 368 448 96 448
WIRE 448 448 368 448
WIRE 624 464 512 464
WIRE 656 464 624 464
WIRE 256 480 80 480
WIRE 448 480 256 480
WIRE 656 512 656 464
WIRE 752 512 656 512
WIRE 960 512 848 512
WIRE 752 560 656 560
WIRE 928 560 864 560
WIRE 960 560 928 560
WIRE 240 624 224 624
WIRE 448 624 240 624
WIRE 608 640 512 640
WIRE 656 640 656 560
WIRE 656 640 608 640
WIRE 368 656 368 448
WIRE 448 656 368 656
WIRE 80 720 80 480
WIRE 224 720 224 624
WIRE 80 880 80 800
WIRE 224 880 224 800
FLAG 32 336 0
FLAG 320 224 drv
FLAG 624 80 isense
FLAG 256 64 g
FLAG 320 -16 s
FLAG 896 -16 out
FLAG 80 880 0
FLAG 224 880 0
FLAG 256 480 ip
FLAG 240 624 iv
FLAG 624 464 set
FLAG 608 640 reset
FLAG 96 448 isense
FLAG 928 560 drv
SYMBOL voltage 32 48 R0
WINDOW 123 0 0 Left 0
WINDOW 39 0 0 Left 0
SYMATTR InstName V1
SYMATTR Value 10
SYMBOL nmos 176 32 R270
WINDOW 0 64 15 VRight 2
WINDOW 3 86 -11 VRight 2
SYMATTR InstName M1
SYMATTR Value IRFZ48Z
SYMBOL schottky 512 144 R180
WINDOW 0 -46 33 Left 2
WINDOW 3 -105 0 Left 2
SYMATTR InstName D1
SYMATTR Value MBRS360
SYMATTR Description Diode
SYMATTR Type diode
SYMBOL ind 624 0 R270
WINDOW 0 32 56 VTop 2
WINDOW 3 5 56 VBottom 2
SYMATTR InstName L1
SYMATTR Value 100µ
SYMBOL cap 800 80 R0
SYMATTR InstName C1
SYMATTR Value 10µ
SYMBOL res 928 64 R0
SYMATTR InstName R1
SYMATTR Value 10
SYMBOL Control\\driver 256 128 R270
WINDOW 0 -16 -52 VTop 2
WINDOW 3 -31 72 VTop 2
SYMATTR InstName U1
SYMATTR Value k=15
SYMBOL Control\\isense 560 -16 R0
SYMATTR InstName U2
SYMBOL Control\\comp 480 464 R0
WINDOW 3 -1 28 Left 2
WINDOW 123 1 52 Left 2
SYMATTR Value Vhigh=1
SYMATTR Value2 Vlow=0
SYMATTR InstName U3
SYMBOL Control\\comp 480 640 R0
WINDOW 3 -5 34 Left 2
WINDOW 123 -4 59 Left 2
SYMATTR Value Vhigh=1
SYMATTR Value2 Vlow=0
SYMATTR InstName U4
SYMBOL voltage 224 704 R0
SYMATTR InstName V2
SYMATTR Value {iv}
SYMBOL voltage 80 704 R0
WINDOW 123 0 0 Left 0
WINDOW 39 0 0 Left 0
SYMATTR InstName V3
SYMATTR Value {ip}
SYMBOL Digital\\srflop 800 464 R0
SYMATTR InstName A1
TEXT 32 -128 Left 2 !.tran 0 600u 0 0.1u uic
TEXT 384 -128 Left 2 !.options reltol=1m
TEXT 176 392 Left 2 !.param ip=0.7 iv=0.4
