Version 4
SHEET 1 2052 1520
WIRE 176 -16 32 -16
WIRE 320 -16 272 -16
WIRE 336 -16 320 -16
WIRE 496 -16 336 -16
WIRE 544 -16 496 -16
WIRE 640 -16 576 -16
WIRE 816 -16 720 -16
WIRE 896 -16 816 -16
WIRE 944 -16 896 -16
WIRE 32 64 32 -16
WIRE 256 64 256 32
WIRE 496 80 496 -16
WIRE 560 80 560 0
WIRE 624 80 560 80
WIRE 688 80 624 80
WIRE 816 80 816 -16
WIRE 944 80 944 -16
WIRE 256 96 256 64
WIRE 336 128 336 -16
WIRE 336 128 272 128
WIRE 256 224 256 160
WIRE 320 224 256 224
WIRE 352 224 320 224
WIRE 32 272 32 144
WIRE 496 272 496 144
WIRE 496 272 32 272
WIRE 816 272 816 144
WIRE 816 272 496 272
WIRE 944 272 944 160
WIRE 944 272 816 272
WIRE 32 336 32 272
WIRE 144 400 128 400
WIRE 480 400 144 400
WIRE 768 416 688 416
WIRE 816 416 768 416
WIRE 288 432 256 432
WIRE 480 432 288 432
WIRE 432 464 384 464
WIRE 480 464 432 464
WIRE 128 480 128 400
WIRE 256 480 256 432
WIRE 128 656 128 560
WIRE 256 656 256 560
FLAG 32 336 0
FLAG 320 224 drv
FLAG 624 80 isense
FLAG 256 64 g
FLAG 320 -16 s
FLAG 896 -16 out
FLAG 128 656 0
FLAG 256 656 0
FLAG 432 464 isense
FLAG 768 416 drv
FLAG 144 400 ip
FLAG 288 432 iv
SYMBOL voltage 32 48 R0
WINDOW 123 0 0 Left 0
WINDOW 39 0 0 Left 0
SYMATTR InstName V1
SYMATTR Value 10
SYMBOL nmos 176 32 R270
WINDOW 0 64 15 VRight 2
WINDOW 3 86 -11 VRight 2
SYMATTR InstName M1
SYMATTR Value IRFZ48Z
SYMBOL schottky 512 144 R180
WINDOW 0 -46 33 Left 2
WINDOW 3 -105 0 Left 2
SYMATTR InstName D1
SYMATTR Value MBRS360
SYMATTR Description Diode
SYMATTR Type diode
SYMBOL ind 624 0 R270
WINDOW 0 32 56 VTop 2
WINDOW 3 5 56 VBottom 2
SYMATTR InstName L1
SYMATTR Value 100µ
SYMBOL cap 800 80 R0
SYMATTR InstName C1
SYMATTR Value 50µ
SYMBOL res 928 64 R0
SYMATTR InstName R1
SYMATTR Value 10
SYMBOL Control\\driver 256 128 R270
WINDOW 0 -16 -52 VTop 2
WINDOW 3 -31 72 VTop 2
SYMATTR InstName U1
SYMATTR Value k=15
SYMBOL Control\\isense 560 -16 R0
SYMATTR InstName U2
SYMBOL MyHysC 480 480 R0
SYMATTR InstName U5
SYMBOL voltage 128 464 R0
WINDOW 123 0 0 Left 0
WINDOW 39 0 0 Left 0
SYMATTR InstName V4
SYMATTR Value 1.0
SYMBOL voltage 256 464 R0
SYMATTR InstName V5
SYMATTR Value 1m
TEXT 32 -128 Left 2 !.tran 0 2.5m 0 0.1u uic
TEXT 384 -128 Left 2 !.options reltol=1m
